:1ynd_ligand
                    3D
 Schrodinger Suite 2020-1.
170174  0  0  1  0            999 V2000
   60.2030   49.1890   58.2510 O   0  0  0  0  0  0
   59.6520   48.9720   57.1610 C   0  0  0  0  0  0
   59.1570   50.1440   56.2550 C   0  0  1  0  0  0
   60.3470   50.8240   55.5700 C   0  0  0  0  0  0
   61.3150   51.5050   56.4900 C   0  0  0  0  0  0
   58.2120   49.6490   55.1530 C   0  0  0  0  0  0
   59.4860   47.7070   56.7620 N   0  0  0  0  0  0
   58.8040   47.2670   55.5280 C   0  0  1  0  0  0
   57.4300   46.9390   55.8330 O   0  0  0  0  0  0
   58.7500   48.4010   54.4820 C   0  0  1  0  0  0
   57.8040   48.0050   53.3260 C   0  0  0  0  0  0
   59.4600   45.9680   54.9560 C   0  0  1  0  0  0
   60.9320   46.2150   54.6180 C   0  0  0  0  0  0
   59.2940   44.7920   55.9650 C   0  0  1  0  0  0
   60.0360   45.0250   57.1780 O   0  0  0  0  0  0
   57.7840   44.6060   56.3180 C   0  0  1  0  0  0
   57.6190   43.4390   57.3350 C   0  0  0  0  0  0
   57.1920   45.9620   56.8100 C   0  0  2  0  0  0
   55.7210   45.7850   57.1450 C   0  0  0  0  0  0
   55.1830   47.0080   57.8950 C   0  0  2  0  0  0
   55.4680   46.8190   59.2870 O   0  0  0  0  0  0
   53.6580   47.1190   57.6910 C   0  0  1  0  0  0
   52.9520   45.8760   58.2200 C   0  0  0  0  0  0
   53.1220   48.3700   58.3910 C   0  0  0  0  0  0
   53.5040   49.6680   57.6810 C   0  0  0  0  0  0
   52.7510   49.7780   56.3270 C   0  0  0  0  0  0
   53.3550   49.9780   55.1550 C   0  0  0  0  0  0
   52.5980   50.0590   54.0200 C   0  0  0  0  0  0
   53.1460   50.2550   52.8110 C   0  0  0  0  0  0
   54.6390   50.4100   52.5360 C   0  0  0  0  0  0
   52.3520   50.3550   51.5230 C   0  0  1  0  0  0
   51.0530   49.7430   51.8120 O   0  0  0  0  0  0
   52.2420   51.8330   51.0540 C   0  0  0  0  0  0
   51.2930   52.0140   49.8710 C   0  0  0  0  0  0
   50.4510   53.0560   49.8020 C   0  0  0  0  0  0
   49.6210   53.1770   48.7510 C   0  0  0  0  0  0
   48.7590   54.2100   48.6400 C   0  0  0  0  0  0
   47.7870   54.3570   47.4400 C   0  0  2  0  0  0
   48.0280   55.5600   46.6810 O   0  0  0  0  0  0
   46.3420   54.3950   47.9370 C   0  0  2  0  0  0
   46.1200   53.1980   48.8990 C   0  0  0  0  0  0
   45.3770   54.3530   46.6820 C   0  0  1  0  0  0
   45.6540   53.2080   45.8550 O   0  0  0  0  0  0
   43.8540   54.4430   47.0690 C   0  0  1  0  0  0
   43.0610   54.7700   45.7990 C   0  0  0  0  0  0
   41.5600   54.9510   46.0710 C   0  0  0  0  0  0
   40.8020   55.1370   44.7720 C   0  0  0  0  0  0
   39.4160   54.5390   44.5610 C   0  0  0  0  0  0
   41.2400   55.7530   43.7950 O   0  0  0  0  0  0
   43.2890   53.1530   47.7300 C   0  0  0  0  0  0
   42.6020   53.2180   48.7620 O   0  0  0  0  0  0
   43.5810   51.9730   47.1640 N   0  0  0  0  0  0
   43.1720   50.7040   47.7780 C   0  0  1  0  0  0
   42.5650   49.7610   46.7190 C   0  0  0  0  0  0
   41.3310   50.4380   46.0910 C   0  0  0  0  0  0
   42.1700   48.4350   47.3550 C   0  0  0  0  0  0
   44.4950   50.1620   48.3260 C   0  0  0  0  0  0
   45.4120   49.8390   47.5910 O   0  0  0  0  0  0
   44.5370   50.1170   49.6430 N   0  0  0  0  0  0
   45.7280   49.8730   50.4350 C   0  0  1  0  0  0
   45.5600   50.8180   51.6320 C   0  0  0  0  0  0
   46.6050   50.6710   52.7010 C   0  0  0  0  0  0
   46.3830   49.8570   53.8150 C   0  0  0  0  0  0
   47.3300   49.7160   54.8020 C   0  0  0  0  0  0
   47.0580   48.8990   55.8700 O   0  0  0  0  0  0
   48.5250   50.4010   54.7030 C   0  0  0  0  0  0
   48.7520   51.2170   53.6210 C   0  0  0  0  0  0
   47.8100   51.3590   52.6200 C   0  0  0  0  0  0
   45.7840   48.4050   50.8730 C   0  0  0  0  0  0
   44.7760   47.8610   51.3050 O   0  0  0  0  0  0
   46.9490   47.7490   50.7360 N   0  0  0  0  0  0
   48.1210   48.3740   50.3430 N   0  3  0  0  0  0
   47.1050   46.3570   51.2070 C   0  0  0  0  0  0
   48.1410   46.3070   52.3240 C   0  0  0  0  0  0
   49.4200   47.0560   51.9730 C   0  0  0  0  0  0
   49.1490   48.4630   51.3910 C   0  0  1  0  0  0
   50.4250   49.0440   50.8620 C   0  0  0  0  0  0
   50.7990   48.8490   49.7250 O   0  0  0  0  0  0
   58.6326   50.8708   56.8767 H   0  0  0  0  0  0
   59.9745   51.5761   54.8733 H   0  0  0  0  0  0
   60.9185   50.1190   54.9680 H   0  0  0  0  0  0
   62.0427   52.0822   55.9193 H   0  0  0  0  0  0
   60.8040   52.1945   57.1626 H   0  0  0  0  0  0
   61.8791   50.7960   57.0954 H   0  0  0  0  0  0
   58.0506   50.4346   54.4136 H   0  0  0  0  0  0
   57.2273   49.4555   55.5820 H   0  0  0  0  0  0
   59.8348   46.9617   57.3510 H   0  0  0  0  0  0
   59.7379   48.5858   54.0705 H   0  0  0  0  0  0
   58.1828   47.1688   52.7419 H   0  0  0  0  0  0
   56.7955   47.7584   53.6582 H   0  0  0  0  0  0
   57.7050   48.8338   52.6247 H   0  0  0  0  0  0
   58.9402   45.6691   54.0485 H   0  0  0  0  0  0
   61.4099   45.2812   54.3208 H   0  0  0  0  0  0
   61.0554   46.8967   53.7783 H   0  0  0  0  0  0
   61.5007   46.6092   55.4602 H   0  0  0  0  0  0
   59.6823   43.8779   55.5154 H   0  0  0  0  0  0
   59.9591   44.2581   57.7260 H   0  0  0  0  0  0
   57.2664   44.3202   55.4010 H   0  0  0  0  0  0
   56.5959   43.0664   57.3684 H   0  0  0  0  0  0
   58.2388   42.5882   57.0504 H   0  0  0  0  0  0
   57.9058   43.7362   58.3441 H   0  0  0  0  0  0
   57.6903   46.2399   57.7390 H   0  0  0  0  0  0
   55.5306   44.8983   57.7453 H   0  0  0  0  0  0
   55.1835   45.6455   56.2070 H   0  0  0  0  0  0
   55.6851   47.9069   57.5400 H   0  0  0  0  0  0
   56.4050   46.7673   59.3987 H   0  0  0  0  0  0
   53.4444   47.1883   56.6239 H   0  0  0  0  0  0
   51.8734   45.9670   58.0895 H   0  0  0  0  0  0
   53.2443   44.9711   57.6886 H   0  0  0  0  0  0
   53.1299   45.7162   59.2837 H   0  0  0  0  0  0
   53.4550   48.4078   59.4286 H   0  0  0  0  0  0
   52.0334   48.3225   58.4426 H   0  0  0  0  0  0
   54.5786   49.7725   57.5390 H   0  0  0  0  0  0
   53.1949   50.5139   58.2956 H   0  0  0  0  0  0
   51.6754   49.6836   56.3802 H   0  0  0  0  0  0
   54.4308   50.0676   55.1263 H   0  0  0  0  0  0
   51.5270   49.9667   54.1191 H   0  0  0  0  0  0
   54.8513   50.6774   51.5008 H   0  0  0  0  0  0
   55.0697   51.1855   53.1698 H   0  0  0  0  0  0
   55.1524   49.4712   52.7443 H   0  0  0  0  0  0
   52.8679   49.7628   50.7655 H   0  0  0  0  0  0
   53.2226   52.2045   50.7570 H   0  0  0  0  0  0
   51.9079   52.4607   51.8816 H   0  0  0  0  0  0
   51.3584   51.2939   49.0683 H   0  0  0  0  0  0
   50.4207   53.7780   50.6061 H   0  0  0  0  0  0
   49.6337   52.4266   47.9726 H   0  0  0  0  0  0
   48.7157   54.9796   49.3981 H   0  0  0  0  0  0
   47.9566   53.5063   46.7798 H   0  0  0  0  0  0
   48.9123   55.5344   46.3468 H   0  0  0  0  0  0
   46.1729   55.3187   48.4928 H   0  0  0  0  0  0
   45.1659   53.2397   49.4119 H   0  0  0  0  0  0
   46.2301   52.2520   48.3770 H   0  0  0  0  0  0
   46.8183   53.1792   49.7329 H   0  0  0  0  0  0
   45.5958   55.2253   46.0656 H   0  0  0  0  0  0
   46.5243   53.3017   45.4976 H   0  0  0  0  0  0
   43.7246   55.2655   47.7740 H   0  0  0  0  0  0
   43.2082   53.9850   45.0545 H   0  0  0  0  0  0
   43.4534   55.6866   45.3556 H   0  0  0  0  0  0
   41.3887   55.8142   46.7144 H   0  0  0  0  0  0
   41.1341   54.0835   46.5741 H   0  0  0  0  0  0
   39.0191   54.8045   43.5806 H   0  0  0  0  0  0
   39.4617   53.4522   44.6320 H   0  0  0  0  0  0
   38.7283   54.9066   45.3225 H   0  0  0  0  0  0
   44.1844   51.9541   46.3518 H   0  0  0  0  0  0
   42.4472   50.8290   48.5857 H   0  0  0  0  0  0
   43.2892   49.5670   45.9258 H   0  0  0  0  0  0
   40.8430   49.7728   45.3782 H   0  0  0  0  0  0
   40.5939   50.7061   46.8488 H   0  0  0  0  0  0
   41.5934   51.3454   45.5464 H   0  0  0  0  0  0
   41.6856   47.7849   46.6259 H   0  0  0  0  0  0
   43.0315   47.8884   47.7392 H   0  0  0  0  0  0
   41.4712   48.5791   48.1799 H   0  0  0  0  0  0
   43.7012   50.3749   50.1480 H   0  0  0  0  0  0
   46.5986   50.1983   49.8661 H   0  0  0  0  0  0
   44.5853   50.6630   52.0999 H   0  0  0  0  0  0
   45.5557   51.8559   51.3015 H   0  0  0  0  0  0
   45.4484   49.3207   53.8984 H   0  0  0  0  0  0
   46.1951   48.5144   55.8380 H   0  0  0  0  0  0
   49.2754   50.3012   55.4738 H   0  0  0  0  0  0
   49.6868   51.7537   53.5487 H   0  0  0  0  0  0
   48.0154   52.0049   51.7784 H   0  0  0  0  0  0
   47.8874   49.3036   50.0258 H   0  0  0  0  0  0
   48.4977   47.8492   49.5660 H   0  0  0  0  0  0
   47.4465   45.7527   50.3654 H   0  0  0  0  0  0
   46.1765   45.8949   51.5456 H   0  0  0  0  0  0
   48.3690   45.2725   52.5827 H   0  0  0  0  0  0
   47.7087   46.7562   53.2196 H   0  0  0  0  0  0
   49.9801   46.4575   51.2518 H   0  0  0  0  0  0
   50.0497   47.1363   52.8584 H   0  0  0  0  0  0
   48.7623   49.0799   52.1924 H   0  0  0  0  0  0
  1  2  2  0  0  0
  2  3  1  0  0  0
  2  7  1  0  0  0
  3  4  1  0  0  0
  3  6  1  0  0  0
  3 79  1  0  0  0
  4  5  1  0  0  0
  4 80  1  0  0  0
  4 81  1  0  0  0
  5 82  1  0  0  0
  5 83  1  0  0  0
  5 84  1  0  0  0
  6 10  1  0  0  0
  6 85  1  0  0  0
  6 86  1  0  0  0
  7  8  1  0  0  0
  7 87  1  0  0  0
  8  9  1  0  0  0
  8 10  1  0  0  0
  8 12  1  0  0  0
  9 18  1  0  0  0
 10 11  1  0  0  0
 10 88  1  0  0  0
 11 89  1  0  0  0
 11 90  1  0  0  0
 11 91  1  0  0  0
 12 13  1  0  0  0
 12 14  1  0  0  0
 12 92  1  0  0  0
 13 93  1  0  0  0
 13 94  1  0  0  0
 13 95  1  0  0  0
 14 15  1  0  0  0
 14 16  1  0  0  0
 14 96  1  0  0  0
 15 97  1  0  0  0
 16 17  1  0  0  0
 16 18  1  0  0  0
 16 98  1  0  0  0
 17 99  1  0  0  0
 17100  1  0  0  0
 17101  1  0  0  0
 18 19  1  0  0  0
 18102  1  0  0  0
 19 20  1  0  0  0
 19103  1  0  0  0
 19104  1  0  0  0
 20 21  1  0  0  0
 20 22  1  0  0  0
 20105  1  0  0  0
 21106  1  0  0  0
 22 23  1  0  0  0
 22 24  1  0  0  0
 22107  1  0  0  0
 23108  1  0  0  0
 23109  1  0  0  0
 23110  1  0  0  0
 24 25  1  0  0  0
 24111  1  0  0  0
 24112  1  0  0  0
 25 26  1  0  0  0
 25113  1  0  0  0
 25114  1  0  0  0
 26 27  2  0  0  0
 26115  1  0  0  0
 27 28  1  0  0  0
 27116  1  0  0  0
 28 29  2  0  0  0
 28117  1  0  0  0
 29 30  1  0  0  0
 29 31  1  0  0  0
 30118  1  0  0  0
 30119  1  0  0  0
 30120  1  0  0  0
 31 32  1  0  0  0
 31 33  1  0  0  0
 31121  1  0  0  0
 32 77  1  0  0  0
 33 34  1  0  0  0
 33122  1  0  0  0
 33123  1  0  0  0
 34 35  2  0  0  0
 34124  1  0  0  0
 35 36  1  0  0  0
 35125  1  0  0  0
 36 37  2  0  0  0
 36126  1  0  0  0
 37 38  1  0  0  0
 37127  1  0  0  0
 38 39  1  0  0  0
 38 40  1  0  0  0
 38128  1  0  0  0
 39129  1  0  0  0
 40 41  1  0  0  0
 40 42  1  0  0  0
 40130  1  0  0  0
 41131  1  0  0  0
 41132  1  0  0  0
 41133  1  0  0  0
 42 43  1  0  0  0
 42 44  1  0  0  0
 42134  1  0  0  0
 43135  1  0  0  0
 44 45  1  0  0  0
 44 50  1  0  0  0
 44136  1  0  0  0
 45 46  1  0  0  0
 45137  1  0  0  0
 45138  1  0  0  0
 46 47  1  0  0  0
 46139  1  0  0  0
 46140  1  0  0  0
 47 48  1  0  0  0
 47 49  2  0  0  0
 48141  1  0  0  0
 48142  1  0  0  0
 48143  1  0  0  0
 50 51  2  0  0  0
 50 52  1  0  0  0
 52 53  1  0  0  0
 52144  1  0  0  0
 53 54  1  0  0  0
 53 57  1  0  0  0
 53145  1  0  0  0
 54 55  1  0  0  0
 54 56  1  0  0  0
 54146  1  0  0  0
 55147  1  0  0  0
 55148  1  0  0  0
 55149  1  0  0  0
 56150  1  0  0  0
 56151  1  0  0  0
 56152  1  0  0  0
 57 58  2  0  0  0
 57 59  1  0  0  0
 59 60  1  0  0  0
 59153  1  0  0  0
 60 61  1  0  0  0
 60 69  1  0  0  0
 60154  1  0  0  0
 61 62  1  0  0  0
 61155  1  0  0  0
 61156  1  0  0  0
 62 63  2  0  0  0
 62 68  1  0  0  0
 63 64  1  0  0  0
 63157  1  0  0  0
 64 65  1  0  0  0
 64 66  2  0  0  0
 65158  1  0  0  0
 66 67  1  0  0  0
 66159  1  0  0  0
 67 68  2  0  0  0
 67160  1  0  0  0
 68161  1  0  0  0
 69 70  2  0  0  0
 69 71  1  0  0  0
 71 72  1  0  0  0
 71 73  1  0  0  0
 72 76  1  0  0  0
 72162  1  0  0  0
 72163  1  0  0  0
 73 74  1  0  0  0
 73164  1  0  0  0
 73165  1  0  0  0
 74 75  1  0  0  0
 74166  1  0  0  0
 74167  1  0  0  0
 75 76  1  0  0  0
 75168  1  0  0  0
 75169  1  0  0  0
 76 77  1  0  0  0
 76170  1  0  0  0
 77 78  2  0  0  0
M  CHG  1  72   1
M  END
> <s_pdb_PDB_ID>


> <s_pdb_PDB_CLASSIFICATION>
1YND_PROTEIN

> <s_pdb_PDB_format_version>
3.0

> <b_ppw_prepared>
1

> <s_ppw_prepared_with_version>
2020-1

> <b_ppw_created_disulfur>
1

> <s_ppw_het_states>
eJxdlEFuAjEQBL+COKNox7ue8eQrET+Icssp4u9h23gLbw5Rq9ZQDcL9d7Xr5+Xr+WfbFrfLcr9d9tiIecS6EI1YiCtxI1aiE7FVbBWbY3Nsjs2xOTbH5tgcm2NzbIEtsAW2wBbYAltgC2yBLbA1bA1bw9awNWwNW8PWsDVsDVtiS2yJLbEltsSW2BJbYsvDVpeFaMRCXIkbsRKdGMRGxGbYDJthM2yGzbAZNsNmT5u9IraCrWAr2Aq2ItueX3erX6vCDeuXy97BfoMGSIHlDMoB9ExXcYAi4IBVYANsAvUM/AwaYD+sGzaA60QAevU8Aae6oq7xDPgsirrSM0CrqOs9QC9GdUVd9RnwWbwXyxMImipqAgYwAZoqag4Ky9BHYZxQ030axgk1DZq+AE0VNRYzoKme6fc1gH4OjeqK2pPCtPRVGSdUvVG9qXqjuqJ2ZgZUV9TmzIDqitqfCSRNFbVFM8CiZ5qoAVQ9+fiKmqsZ8K3r7bRXM6Bp9mI0VdSCzeDQ9mcathkUwCqwDe0AlRNVwAEuECdgby8JnWCUFDWE5R3YxglVt+Oz9KiVnEE53mOPfTHHiXW86Tih6vtkzoDqitN8dpCA/kvmG9Mzbasxs31hB7DTSxTfbkOP2tyyb+7y8XyLv8ft8vP7/d3/3++Pfwoj1q4=

> <r_ff_Potential_Energy-OPLS3e>
-78106.1054368127

> <r_ff_RMS_Derivative-OPLS3e>
0.0460495805872363

> <b_ff_Minimization_Converged-OPLS3e>
1

> <r_i_Potential_Energy-OPLS_2005>
-5252.69542851021

> <r_i_RMS_Derivative-OPLS_2005>
0.039515592356054

> <r_i_Max_Derivative-OPLS_2005>
0.717804182537906

> <r_i_Stretch_Energy-OPLS_2005>
4.52515403752993

> <r_i_Bend_Energy-OPLS_2005>
101.643492039051

> <r_i_LJ-14_Energy-OPLS_2005>
234.33366059039

> <r_i_El-14_Energy-OPLS_2005>
-122.335222502274

> <r_i_Van_der_Waals_Energy-OPLS_2005>
-360.45525497912

> <r_i_Electrostatic_Energy-OPLS_2005>
-5138.83374608318

> <r_i_Dihedral_Energy-OPLS_2005>
28.4264883873976

> <r_i_target_temperature>
298

> <s_user_Residue_ID>
_:1

$$$$
